
**** 06/14/25 20:57:32 ***** PSpice 24.1.0 (17 April 2025) **** ID# 0 ********

 ** Profile: "SCHEMATIC1-two"  [ c:\users\lhlee\appdata\roaming\spb_data\cdssetup\workspace\projects\#2\#2-PSpiceFiles\SCHEMATIC1\two


 ****     CIRCUIT DESCRIPTION


******************************************************************************




** Creating circuit file "two.cir" 
** WARNING: THIS AUTOMATICALLY GENERATED FILE MAY BE OVERWRITTEN BY SUBSEQUENT SIMULATIONS

*Libraries: 
* Profile Libraries :
* Local Libraries :
* From [PSPICE NETLIST] section of C:\Users\lhlee\AppData\Roaming\SPB_Data\cdssetup\OrCAD_PSpice\24.1.0\PSpice.ini file:
.lib "nom.lib" 

*Analysis directives: 
.TRAN  0 1000ns 0 
.OPTIONS ADVCONV
.PROBE64 V(alias(*)) I(alias(*)) W(alias(*)) D(alias(*)) NOISE(alias(*)) 
.INC "..\SCHEMATIC1.net" 



**** INCLUDING SCHEMATIC1.net ****
* source #2
E_U1         N14447 0 VALUE {LIMIT(V(0,N14392)*1E6,-15V,+15V)}
R_R1         N14439 N14392  500 TC=0,0 
R_R2         N14392 N14447  2k TC=0,0 
V_V1         N14439 0  
+SIN 0 ? 1k 0 0 0

**** RESUMING two.cir ****
.END

**** 06/14/25 20:57:32 ***** PSpice 24.1.0 (17 April 2025) **** ID# 0 ********

 ** Profile: "SCHEMATIC1-two"  [ c:\users\lhlee\appdata\roaming\spb_data\cdssetup\workspace\projects\#2\#2-PSpiceFiles\SCHEMATIC1\two


 ****     INITIAL TRANSIENT SOLUTION       TEMPERATURE =   27.000 DEG C


******************************************************************************



 NODE   VOLTAGE     NODE   VOLTAGE     NODE   VOLTAGE     NODE   VOLTAGE


(N14392)    0.0000 (N14439)    0.0000 (N14447)    0.0000 




    VOLTAGE SOURCE CURRENTS
    NAME         CURRENT

    V_V1         0.000E+00

    TOTAL POWER DISSIPATION   0.00E+00  WATTS



          JOB CONCLUDED

**** 06/14/25 20:57:32 ***** PSpice 24.1.0 (17 April 2025) **** ID# 0 ********

 ** Profile: "SCHEMATIC1-two"  [ c:\users\lhlee\appdata\roaming\spb_data\cdssetup\workspace\projects\#2\#2-PSpiceFiles\SCHEMATIC1\two


 ****     JOB STATISTICS SUMMARY


******************************************************************************



  Total job time (using Solver 1)   =         .02
