
**** 06/07/25 22:45:57 ***** PSpice 24.1.0 (17 April 2025) **** ID# 0 ********

 ** Profile: "SCHEMATIC1-pspice"  [ C:\Users\lhlee\AppData\Roaming\SPB_Data\cdssetup\workspace\projects\pscpice\pscpice-pspicefiles\s


 ****     CIRCUIT DESCRIPTION


******************************************************************************




** Creating circuit file "pspice.cir" 
** WARNING: THIS AUTOMATICALLY GENERATED FILE MAY BE OVERWRITTEN BY SUBSEQUENT SIMULATIONS

*Libraries: 
* Profile Libraries :
* Local Libraries :
* From [PSPICE NETLIST] section of C:\Users\lhlee\AppData\Roaming\SPB_Data\cdssetup\OrCAD_PSpice\24.1.0\PSpice.ini file:
.lib "nom.lib" 

*Analysis directives: 
.AC DEC 1k 100 100M
---------------$
ERROR(ORPSIM-16103): Invalid value
.OPTIONS ADVCONV
.PROBE64 V(alias(*)) I(alias(*)) W(alias(*)) D(alias(*)) NOISE(alias(*)) 
.INC "..\SCHEMATIC1.net" 



**** INCLUDING SCHEMATIC1.net ****
* source PSCPICE
V_V1         N00139 0 DC 0Vdc AC 1Vac 
C_C1         N00139 N00146  1n  TC=0,0 
R_R1         0 N00146  750 TC=0,0 

**** RESUMING pspice.cir ****
.END
