
**** 06/14/25 20:11:44 ***** PSpice 24.1.0 (17 April 2025) **** ID# 0 ********

 ** Profile: "SCHEMATIC1-OPAMP1"  [ c:\users\lhlee\appdata\roaming\spb_data\cdssetup\workspace\projects\recitation 2\Recitation 2-PSp


 ****     CIRCUIT DESCRIPTION


******************************************************************************




** Creating circuit file "OPAMP1.cir" 
** WARNING: THIS AUTOMATICALLY GENERATED FILE MAY BE OVERWRITTEN BY SUBSEQUENT SIMULATIONS

*Libraries: 
* Profile Libraries :
* Local Libraries :
* From [PSPICE NETLIST] section of C:\Users\lhlee\AppData\Roaming\SPB_Data\cdssetup\OrCAD_PSpice\24.1.0\PSpice.ini file:
.lib "nom.lib" 

*Analysis directives: 
.TRAN  0 10ms 0 
.OPTIONS ADVCONV
.PROBE64 V(alias(*)) I(alias(*)) W(alias(*)) D(alias(*)) NOISE(alias(*)) 
.INC "..\SCHEMATIC1.net" 



**** INCLUDING SCHEMATIC1.net ****
* source RECITATION 2
E_U1         N14470 0 VALUE {LIMIT(V(0,N14449)*1E6,-15V,+15V)}
V_V1         N14445 0  AC 0
+SIN 0 2.5v 1k 0 0 0
R_R1         N14445 N14449  2k TC=0,0 
R_R2         N14449 N14470  500 TC=0,0 

**** RESUMING OPAMP1.cir ****
.END

**** 06/14/25 20:11:44 ***** PSpice 24.1.0 (17 April 2025) **** ID# 0 ********

 ** Profile: "SCHEMATIC1-OPAMP1"  [ c:\users\lhlee\appdata\roaming\spb_data\cdssetup\workspace\projects\recitation 2\Recitation 2-PSp


 ****     INITIAL TRANSIENT SOLUTION       TEMPERATURE =   27.000 DEG C


******************************************************************************



 NODE   VOLTAGE     NODE   VOLTAGE     NODE   VOLTAGE     NODE   VOLTAGE


(N14445)    0.0000 (N14449)    0.0000 (N14470)    0.0000 




    VOLTAGE SOURCE CURRENTS
    NAME         CURRENT

    V_V1         0.000E+00

    TOTAL POWER DISSIPATION   0.00E+00  WATTS



          JOB CONCLUDED

**** 06/14/25 20:11:44 ***** PSpice 24.1.0 (17 April 2025) **** ID# 0 ********

 ** Profile: "SCHEMATIC1-OPAMP1"  [ c:\users\lhlee\appdata\roaming\spb_data\cdssetup\workspace\projects\recitation 2\Recitation 2-PSp


 ****     JOB STATISTICS SUMMARY


******************************************************************************



  Total job time (using Solver 1)   =         .02
