
**** 06/21/25 22:53:27 ***** PSpice 24.1.0 (17 April 2025) **** ID# 0 ********

 ** Profile: "SCHEMATIC1-Problem2"  [ c:\users\lhlee\appdata\roaming\spb_data\cdssetup\workspace\projects\recitation 3\Recitation 3-P


 ****     CIRCUIT DESCRIPTION


******************************************************************************




** Creating circuit file "Problem2.cir" 
** WARNING: THIS AUTOMATICALLY GENERATED FILE MAY BE OVERWRITTEN BY SUBSEQUENT SIMULATIONS

*Libraries: 
* Profile Libraries :
* Local Libraries :
* From [PSPICE NETLIST] section of C:\Users\lhlee\AppData\Roaming\SPB_Data\cdssetup\OrCAD_PSpice\24.1.0\PSpice.ini file:
.lib "nom.lib" 

*Analysis directives: 
.TRAN  0 1000ns 0 
.OPTIONS ADVCONV
.PROBE64 V(alias(*)) I(alias(*)) W(alias(*)) D(alias(*)) NOISE(alias(*)) 
.INC "..\SCHEMATIC1.net" 



**** INCLUDING SCHEMATIC1.net ****
* source RECITATION 3
V_V1         N14613 0 5V
E_U1         N14708 0 VALUE {LIMIT(V(N14637,N14651)*1E6,-15V,+15V)}
R_R2         N14613 N14651  2k TC=0,0 
R_R3         N14613 N14637  3k TC=0,0 
R_R4         N14651 N14708  1k TC=0,0 
R_R5         0 N14637  500 TC=0,0 
E_U2         N15202 0 VALUE {LIMIT(V(N15305,N15094)*1E6,-15V,+15V)}
E_U3         N15130 0 VALUE {LIMIT(V(N15301,N15112)*1E6,-15V,+15V)}
E_U4         N15173 0 VALUE {LIMIT(V(N15142,N15156)*1E6,-15V,+15V)}
R_R6         0 N15094  5k TC=0,0 
R_R7         N15112 0  5k TC=0,0 
R_R8         N15130 N15112  2k TC=0,0 
R_R9         N15202 N15094  2k TC=0,0 
R_R10         N15156 N15202  3k TC=0,0 
R_R11         N15142 N15130  3k TC=0,0 
R_R12         N15142 0  2k TC=0,0 
R_R13         N15156 N15173  2k TC=0,0 
V_V2         N15305 N15582 7.5Vdc
V_V3         N15301 N15586 -5.715Vdc

**** RESUMING Problem2.cir ****
.END

ERROR(ORPSIM-15142): Node N15305 is floating

ERROR(ORPSIM-15142): Node N15301 is floating

ERROR(ORPSIM-15142): Node N15582 is floating

ERROR(ORPSIM-15142): Node N15586 is floating
